obj01
  PyMOL2.1          3D                             0

 37 39  0  0  0  0  0  0  0  0999 V2000
   50.7030   98.8160   29.8470 O   0  0  0  0  0  0  0  0  0  0  0  0
   51.5780   99.9040   29.5030 S   0  0  0  0  0  0  0  0  0  0  0  0
   51.4490  100.8860   30.5460 O   0  0  0  0  0  0  0  0  0  0  0  0
   53.0310   99.4050   29.4500 N   0  0  0  0  0  0  0  0  0  0  0  0
   51.0670  100.5500   28.1160 C   0  0  0  0  0  0  0  0  0  0  0  0
   50.8330  101.9280   28.0500 C   0  0  0  0  0  0  0  0  0  0  0  0
   50.3790  102.5540   26.8820 C   0  0  0  0  0  0  0  0  0  0  0  0
   50.1240  101.8490   25.7040 C   0  0  0  0  0  0  0  0  0  0  0  0
   50.3120  100.4710   25.6570 C   0  0  0  0  0  0  0  0  0  0  0  0
   50.7930   99.7530   26.8730 C   0  0  0  0  0  0  0  0  0  0  0  0
   50.9720   98.3750   26.7740 C   0  0  0  0  0  0  0  0  0  0  0  0
   50.6950   97.7410   25.5590 C   0  0  0  0  0  0  0  0  0  0  0  0
   50.2610   98.4160   24.4790 N   0  0  0  0  0  0  0  0  0  0  0  0
   50.0670   99.7470   24.4930 C   0  0  0  0  0  0  0  0  0  0  0  0
   53.3020   97.9600   29.4940 C   0  0  0  0  0  0  0  0  0  0  0  0
   54.4010   98.4890   31.8170 C   0  0  0  0  0  0  0  0  0  0  0  0
   55.2460   99.5800   31.3710 N   0  0  0  0  0  0  0  0  0  0  0  0
   54.1280   97.4800   30.7020 C   0  0  0  0  0  0  0  0  0  0  0  0
   54.6220  100.7170   30.7200 C   0  0  0  0  0  0  0  0  0  0  0  0
   54.1240  100.3710   29.3160 C   0  0  0  0  0  0  0  0  0  0  0  0
   51.0100  102.5351   28.9378 H   0  0  0  0  0  0  0  0  0  0  0  0
   50.2187  103.6321   26.8931 H   0  0  0  0  0  0  0  0  0  0  0  0
   49.7764  102.3801   24.8179 H   0  0  0  0  0  0  0  0  0  0  0  0
   51.3227   97.7997   27.6308 H   0  0  0  0  0  0  0  0  0  0  0  0
   50.8355   96.6627   25.4841 H   0  0  0  0  0  0  0  0  0  0  0  0
   49.7188  100.2577   23.5952 H   0  0  0  0  0  0  0  0  0  0  0  0
   53.9039   97.7403   28.6122 H   0  0  0  0  0  0  0  0  0  0  0  0
   52.3453   97.4380   29.5110 H   0  0  0  0  0  0  0  0  0  0  0  0
   54.9221   97.9681   32.6203 H   0  0  0  0  0  0  0  0  0  0  0  0
   53.4514   98.8976   32.1624 H   0  0  0  0  0  0  0  0  0  0  0  0
   55.7340   99.9311   32.1826 H   0  0  0  0  0  0  0  0  0  0  0  0
   53.5137   96.7103   31.1693 H   0  0  0  0  0  0  0  0  0  0  0  0
   55.0927   97.1409   30.3245 H   0  0  0  0  0  0  0  0  0  0  0  0
   55.3705  101.5039   30.6271 H   0  0  0  0  0  0  0  0  0  0  0  0
   53.7761  101.0479   31.3226 H   0  0  0  0  0  0  0  0  0  0  0  0
   53.7757  101.2689   28.8055 H   0  0  0  0  0  0  0  0  0  0  0  0
   54.9346   99.9352   28.7319 H   0  0  0  0  0  0  0  0  0  0  0  0
  1  2  2  0  0  0  0
  2  3  2  0  0  0  0
  2  4  1  0  0  0  0
  2  5  1  0  0  0  0
  4 15  1  0  0  0  0
  4 20  1  0  0  0  0
  5  6  4  0  0  0  0
  5 10  4  0  0  0  0
  6  7  4  0  0  0  0
  6 21  1  0  0  0  0
  7  8  4  0  0  0  0
  7 22  1  0  0  0  0
  8  9  4  0  0  0  0
  8 23  1  0  0  0  0
  9 10  4  0  0  0  0
  9 14  4  0  0  0  0
 10 11  4  0  0  0  0
 11 12  4  0  0  0  0
 11 24  1  0  0  0  0
 12 25  1  0  0  0  0
 12 13  4  0  0  0  0
 13 14  4  0  0  0  0
 14 26  1  0  0  0  0
 15 27  1  0  0  0  0
 15 28  1  0  0  0  0
 16 18  1  0  0  0  0
 16 29  1  0  0  0  0
 16 30  1  0  0  0  0
 16 17  1  0  0  0  0
 17 31  1  0  0  0  0
 15 18  1  0  0  0  0
 18 32  1  0  0  0  0
 18 33  1  0  0  0  0
 17 19  1  0  0  0  0
 19 34  1  0  0  0  0
 19 35  1  0  0  0  0
 19 20  1  0  0  0  0
 20 36  1  0  0  0  0
 20 37  1  0  0  0  0
M  END
$$$$
